@<TRIPOS>MOLECULE
9IZD.A
11 11 1 0 0 
SMALL
USER_CHARGES


@<TRIPOS>ATOM
  1 C02    127.3590   145.3260   100.2900 C.2   1 A1D71   0.0000 
  2 C04    126.8730   145.2720    98.8490 C.ar  1 A1D71   0.0000 
  3 C05    127.1680   146.2960    97.9690 C.ar  1 A1D71   0.0000 
  4 C06    126.7180   146.2310    96.6640 C.ar  1 A1D71   0.0000 
  5 C08    125.9750   145.1440    96.2410 C.ar  1 A1D71   0.0000 
  6 C09    125.6820   144.1220    97.1290 C.ar  1 A1D71   0.0000 
  7 C11    126.1300   144.1880    98.4300 C.ar  1 A1D71   0.0000 
  8 O01    127.0620   144.3910   101.0730 O.co2 1 A1D71  -0.5000 
  9 O03    128.0540   146.2920   100.6930 O.co2 1 A1D71  -0.5000 
 10 O07    127.0200   147.2690    95.7760 O.3   1 A1D71   0.0000 
 11 CL10   124.7270   142.7040    96.6240 Cl    1 A1D71   0.0000 
@<TRIPOS>BOND
  1   1   2  1   
  2   1   8  ar  
  3   1   9  ar  
  4   2   3  ar  
  5   2   7  ar  
  6   3   4  ar  
  7   4   5  ar  
  8   4  10  1   
  9   5   6  ar  
 10   6   7  ar  
 11   6  11  1   
@<TRIPOS>SUBSTRUCTURE
  1 A1D71   2 GROUP 4 A **** 0

# MOE 2024.06 (io_trps.svl 2023.06)
