9IZD.A
  MOE2024           3D
LIGANDS AND IONS
 11 11  0  0  0  0  0  0  0  0999 V2000
  127.3590  145.3260  100.2900 C   0  0  0  0  0  0  0  0  0  0  0  0
  126.8730  145.2720   98.8490 C   0  0  0  0  0  0  0  0  0  0  0  0
  127.1680  146.2960   97.9690 C   0  0  0  0  0  0  0  0  0  0  0  0
  126.7180  146.2310   96.6640 C   0  0  0  0  0  0  0  0  0  0  0  0
  125.9750  145.1440   96.2410 C   0  0  0  0  0  0  0  0  0  0  0  0
  125.6820  144.1220   97.1290 C   0  0  0  0  0  0  0  0  0  0  0  0
  126.1300  144.1880   98.4300 C   0  0  0  0  0  0  0  0  0  0  0  0
  127.0620  144.3910  101.0730 O   0  0  0  0  0  0  0  0  0  0  0  0
  128.0540  146.2920  100.6930 O   0  5  0  0  0  0  0  0  0  0  0  0
  127.0200  147.2690   95.7760 O   0  0  0  0  0  0  0  0  0  0  0  0
  124.7270  142.7040   96.6240 Cl  0  0  0  0  0  0  0  0  0  0  0  0
  1  2  1  0  0  0  0
  1  8  2  0  0  0  0
  1  9  1  0  0  0  0
  2  3  1  0  0  0  0
  2  7  2  0  0  0  0
  3  4  2  0  0  0  0
  4  5  1  0  0  0  0
  4 10  1  0  0  0  0
  5  6  2  0  0  0  0
  6  7  1  0  0  0  0
  6 11  1  0  0  0  0
M  CHG  1   9  -1
M  END
$$$$
