@<TRIPOS>MOLECULE
9IZD.A
15 15 1 0 0 
SMALL
USER_CHARGES


@<TRIPOS>ATOM
  1 C      127.3560   145.3310   100.2710 C.2   1 A1D   0.9790 
  2 C      126.8870   145.2730    98.8920 C.ar  1 A1D  -0.1790 
  3 C      127.1670   146.2900    97.9730 C.ar  1 A1D  -0.1500 
  4 C      126.7190   146.2300    96.6640 C.ar  1 A1D   0.0830 
  5 C      125.9730   145.1500    96.2250 C.ar  1 A1D  -0.1500 
  6 C      125.6900   144.1400    97.1230 C.ar  1 A1D   0.1770 
  7 C      126.1320   144.1910    98.4300 C.ar  1 A1D  -0.1500 
  8 O      127.0790   144.4170   101.0680 O.co2 1 A1D  -0.9000 
  9 O      128.0390   146.2890   100.6720 O.co2 1 A1D  -0.9000 
 10 O      127.0120   147.2310    95.8160 O.3   1 A1D  -0.5320 
 11 CL     124.7500   142.7680    96.5880 Cl    1 A1D  -0.1770 
 12 H      127.7460   147.1380    98.2980 H     1 A1D   0.1500 
 13 H      125.6160   145.0830    95.2160 H     1 A1D   0.1500 
 14 H      125.8960   143.3890    99.1100 H     1 A1D   0.1500 
 15 H      126.6550   147.0970    94.9230 H     1 A1D   0.4500 
@<TRIPOS>BOND
  1   1   2  1   
  2   1   8  ar  
  3   1   9  ar  
  4   2   3  ar  
  5   2   7  ar  
  6   3   4  ar  
  7   3  12  1   
  8   4   5  ar  
  9   4  10  1   
 10   5   6  ar  
 11   5  13  1   
 12   6   7  ar  
 13   6  11  1   
 14   7  14  1   
 15  10  15  1   
@<TRIPOS>SUBSTRUCTURE
  1 A1D   2 GROUP 4 A **** 0

# MOE 2024.06 (io_trps.svl 2023.06)

