9IZD.A
  MOE2024           3D
9IZD.A
 15 15  0  0  0  0  0  0  0  0999 V2000
  127.3560  145.3310  100.2710 C   0  0  0  0  0  0  0  0  0  0  0  0
  126.8870  145.2730   98.8920 C   0  0  0  0  0  0  0  0  0  0  0  0
  127.1670  146.2900   97.9730 C   0  0  0  0  0  0  0  0  0  0  0  0
  126.7190  146.2300   96.6640 C   0  0  0  0  0  0  0  0  0  0  0  0
  125.9730  145.1500   96.2250 C   0  0  0  0  0  0  0  0  0  0  0  0
  125.6900  144.1400   97.1230 C   0  0  0  0  0  0  0  0  0  0  0  0
  126.1320  144.1910   98.4300 C   0  0  0  0  0  0  0  0  0  0  0  0
  127.0790  144.4170  101.0680 O   0  0  0  0  0  0  0  0  0  0  0  0
  128.0390  146.2890  100.6720 O   0  5  0  0  0  0  0  0  0  0  0  0
  127.0120  147.2310   95.8160 O   0  0  0  0  0  0  0  0  0  0  0  0
  124.7500  142.7680   96.5880 Cl  0  0  0  0  0  0  0  0  0  0  0  0
  127.7460  147.1380   98.2980 H   0  0  0  0  0  0  0  0  0  0  0  0
  125.6160  145.0830   95.2160 H   0  0  0  0  0  0  0  0  0  0  0  0
  125.8960  143.3890   99.1100 H   0  0  0  0  0  0  0  0  0  0  0  0
  126.6550  147.0970   94.9230 H   0  0  0  0  0  0  0  0  0  0  0  0
  1  2  1  0  0  0  0
  1  8  2  0  0  0  0
  1  9  1  0  0  0  0
  2  3  1  0  0  0  0
  2  7  2  0  0  0  0
  3  4  2  0  0  0  0
  3 12  1  0  0  0  0
  4  5  1  0  0  0  0
  4 10  1  0  0  0  0
  5  6  2  0  0  0  0
  5 13  1  0  0  0  0
  6  7  1  0  0  0  0
  6 11  1  0  0  0  0
  7 14  1  0  0  0  0
 10 15  1  0  0  0  0
M  CHG  1   9  -1
M  END
$$$$
